/*--------------------------------*- C++ -*----------------------------------*\
  =========                 |
  \\      /  F ield         | OpenFOAM: The Open Source CFD Toolbox
   \\    /   O peration     | Website:  https://openfoam.org
    \\  /    A nd           | Version:  10
     \\/     M anipulation  |
\*---------------------------------------------------------------------------*/
FoamFile
{
    format      binary;
    class       polyBoundaryMesh;
    location    "constant/polyMesh";
    object      boundary;
}
// * * * * * * * * * * * * * * * * * * * * * * * * * * * * * * * * * * * * * //

12
(
    inlet
    {
        type            patch;
        nFaces          927;
        startFace       184896;
    }
    outlet
    {
        type            patch;
        nFaces          817;
        startFace       185823;
    }
    waterplane
    {
        type            symmetryPlane;
        inGroups        List<word> 1(symmetryPlane);
        nFaces          838;
        startFace       186640;
    }
    bottom
    {
        type            symmetryPlane;
        inGroups        List<word> 1(symmetryPlane);
        nFaces          0;
        startFace       187478;
    }
    side
    {
        type            symmetryPlane;
        inGroups        List<word> 1(symmetryPlane);
        nFaces          1948;
        startFace       187478;
    }
    midPlane
    {
        type            symmetryPlane;
        inGroups        List<word> 1(symmetryPlane);
        nFaces          2630;
        startFace       189426;
    }
    hull
    {
        type            wall;
        inGroups        List<word> 1(wall);
        nFaces          0;
        startFace       192056;
    }
    procBoundary4to0
    {
        type            processor;
        inGroups        List<word> 1(processor);
        nFaces          81;
        startFace       192056;
        matchTolerance  0.0001;
        myProcNo        4;
        neighbProcNo    0;
    }
    procBoundary4to1
    {
        type            processor;
        inGroups        List<word> 1(processor);
        nFaces          336;
        startFace       192137;
        matchTolerance  0.0001;
        myProcNo        4;
        neighbProcNo    1;
    }
    procBoundary4to3
    {
        type            processor;
        inGroups        List<word> 1(processor);
        nFaces          1352;
        startFace       192473;
        matchTolerance  0.0001;
        myProcNo        4;
        neighbProcNo    3;
    }
    procBoundary4to5
    {
        type            processor;
        inGroups        List<word> 1(processor);
        nFaces          2232;
        startFace       193825;
        matchTolerance  0.0001;
        myProcNo        4;
        neighbProcNo    5;
    }
    procBoundary4to7
    {
        type            processor;
        inGroups        List<word> 1(processor);
        nFaces          2371;
        startFace       196057;
        matchTolerance  0.0001;
        myProcNo        4;
        neighbProcNo    7;
    }
)

// ************************************************************************* //
